Version 4.1
SHEET 1 2260 912
WIRE 1216 -160 848 -160
WIRE 1568 -160 1296 -160
WIRE 1824 -160 1568 -160
WIRE 288 -144 288 -208
WIRE 432 -144 432 -208
WIRE 560 -144 560 -208
WIRE 704 -144 704 -208
WIRE 848 -48 848 -160
WIRE 880 -48 848 -48
WIRE 1136 -48 944 -48
WIRE -1360 -32 -1424 -32
WIRE -1216 -32 -1280 -32
WIRE -1120 -32 -1216 -32
WIRE -960 -32 -1040 -32
WIRE 288 -32 288 -64
WIRE 432 -32 432 -64
WIRE 560 -32 560 -64
WIRE 704 -32 704 -64
WIRE -1424 0 -1424 -32
WIRE -288 16 -352 16
WIRE -160 16 -288 16
WIRE -48 16 -80 16
WIRE 1680 48 1680 32
WIRE 912 64 912 48
WIRE 1568 64 1568 -160
WIRE 1648 64 1568 64
WIRE 528 80 528 48
WIRE 848 80 848 -48
WIRE 880 80 848 80
WIRE 1792 80 1712 80
WIRE 1824 80 1824 -160
WIRE 1824 80 1792 80
WIRE -1424 96 -1424 80
WIRE -1136 96 -1136 48
WIRE -544 96 -576 96
WIRE -336 96 -368 96
WIRE 496 96 256 96
WIRE 1136 96 1136 -48
WIRE 1136 96 944 96
WIRE 1184 96 1136 96
WIRE 1328 96 1248 96
WIRE 1648 96 1328 96
WIRE -1216 112 -1216 -32
WIRE -1168 112 -1216 112
WIRE -576 112 -576 96
WIRE -544 112 -544 96
WIRE -336 112 -336 96
WIRE 688 112 560 112
WIRE 720 112 688 112
WIRE 880 112 720 112
WIRE -1008 128 -1104 128
WIRE -960 128 -960 -32
WIRE -960 128 -1008 128
WIRE -832 128 -960 128
WIRE 496 128 432 128
WIRE -1168 144 -1216 144
WIRE 240 144 224 144
WIRE 256 144 256 96
WIRE 256 144 240 144
WIRE 1680 144 1680 112
WIRE -1520 160 -1520 144
WIRE -176 160 -176 96
WIRE 432 160 432 128
WIRE 528 160 528 144
WIRE 912 160 912 128
WIRE -1216 176 -1216 144
WIRE -288 176 -288 16
WIRE -208 176 -288 176
WIRE -1136 192 -1136 160
WIRE -48 192 -48 16
WIRE -48 192 -144 192
WIRE 0 192 -48 192
WIRE 144 192 144 144
WIRE 144 192 0 192
WIRE -832 208 -832 128
WIRE -800 208 -832 208
WIRE -576 208 -576 176
WIRE -576 208 -720 208
WIRE -496 208 -576 208
WIRE -368 208 -368 176
WIRE -368 208 -432 208
WIRE -208 208 -368 208
WIRE 1328 272 1328 96
WIRE -1520 288 -1520 240
WIRE -1408 288 -1520 288
WIRE -1216 288 -1216 256
WIRE -1216 288 -1328 288
WIRE -176 288 -176 224
WIRE -1216 320 -1216 288
WIRE -1520 336 -1520 288
WIRE 256 336 256 144
WIRE 432 336 256 336
WIRE 592 336 528 336
WIRE 720 336 720 112
WIRE 720 336 672 336
WIRE 480 368 480 336
WIRE 1328 368 1328 336
WIRE -576 400 -576 208
WIRE -368 400 -576 400
WIRE -48 400 -48 192
WIRE -48 400 -288 400
WIRE 480 416 448 416
WIRE -1520 432 -1520 416
WIRE -1216 432 -1216 400
WIRE 480 432 480 416
WIRE -944 464 -944 400
WIRE -784 464 -784 400
WIRE 256 480 256 336
WIRE 432 480 256 480
WIRE 592 480 528 480
WIRE 720 480 720 336
WIRE 720 480 672 480
WIRE 480 512 480 480
WIRE 480 560 448 560
WIRE 480 576 480 560
WIRE -944 592 -944 544
WIRE -784 592 -784 544
WIRE 256 624 256 480
WIRE 432 624 256 624
WIRE 592 624 528 624
WIRE 720 624 720 480
WIRE 720 624 672 624
WIRE 480 656 480 624
WIRE 480 704 448 704
WIRE 480 720 480 704
WIRE 256 768 256 624
WIRE 432 768 256 768
WIRE 592 768 528 768
WIRE 720 768 720 624
WIRE 720 768 672 768
WIRE 480 800 480 768
FLAG 480 288 S1
FLAG 448 416 S2
FLAG 448 560 S3
FLAG 448 704 S4
FLAG 480 368 VSS
FLAG 480 512 VSS
FLAG 480 656 VSS
FLAG 480 800 VSS
FLAG 688 112 out3
FLAG 528 160 VSS
FLAG 528 48 VDD
FLAG 432 160 0
FLAG -944 592 0
FLAG -784 592 0
FLAG -944 400 VDD
FLAG -784 400 VSS
FLAG 912 48 VDD
FLAG 912 160 VSS
FLAG 1680 32 VDD
FLAG 1680 144 VSS
FLAG 1328 368 0
FLAG 1792 80 out4
FLAG -1008 128 Vout_compensat
FLAG -1520 144 +V
FLAG -1520 432 -V
FLAG -1136 48 VDD
FLAG -1136 192 VSS
FLAG -1424 96 0
FLAG -1216 432 0
FLAG 288 -32 0
FLAG 288 -208 S1
FLAG 432 -32 0
FLAG 432 -208 S2
FLAG 560 -32 0
FLAG 560 -208 S3
FLAG 704 -32 0
FLAG 704 -208 S4
FLAG 240 144 in
FLAG 0 192 out_TB_gain
FLAG -176 288 VSS
FLAG -176 96 VDD
FLAG -544 112 0
FLAG -352 -64 0
FLAG -336 112 0
SYMBOL res 240 128 R90
WINDOW 0 0 56 VBottom 2
WINDOW 3 32 56 VTop 2
SYMATTR InstName RG1
SYMATTR Value 3.3k
SYMBOL res 688 320 R90
WINDOW 0 0 56 VBottom 2
WINDOW 3 32 56 VTop 2
SYMATTR InstName R1
SYMATTR Value 2.94k
SYMBOL res 688 464 R90
WINDOW 0 0 56 VBottom 2
WINDOW 3 32 56 VTop 2
SYMATTR InstName R2
SYMATTR Value 4.15k
SYMBOL res 688 608 R90
WINDOW 0 0 56 VBottom 2
WINDOW 3 32 56 VTop 2
SYMATTR InstName R3
SYMATTR Value 5.67k
SYMBOL res 688 752 R90
WINDOW 0 0 56 VBottom 2
WINDOW 3 32 56 VTop 2
SYMATTR InstName R4
SYMATTR Value 8.29k
SYMBOL nmosb 528 288 R90
SYMATTR InstName M1
SYMATTR Value2 l=180n w=20u ad=3.6p as=3.6p pd=40.4u ps=40.4u
SYMBOL nmosb 528 432 R90
SYMATTR InstName M2
SYMATTR Value2 l=180n w=20u ad=3.6p as=3.6p pd=40.4u ps=40.4u
SYMBOL nmosb 528 720 R90
SYMATTR InstName M4
SYMATTR Value2 l=180n w=20u ad=3.6p as=3.6p pd=40.4u ps=40.4u
SYMBOL OpAmps\\OP482 528 48 R0
SYMATTR InstName U1
SYMBOL voltage -944 448 R0
WINDOW 123 24 124 Left 2
WINDOW 39 0 0 Left 2
WINDOW 3 24 44 Left 2
SYMATTR Value 15
SYMATTR InstName V1
SYMBOL voltage -784 560 R180
WINDOW 123 24 124 Left 2
WINDOW 39 0 0 Left 2
WINDOW 3 24 44 Left 2
SYMATTR Value 15
SYMATTR InstName V2
SYMBOL diode 944 -32 M270
WINDOW 0 32 32 VTop 2
WINDOW 3 0 32 VBottom 2
SYMATTR InstName D1
SYMATTR Value 1N4148
SYMBOL diode 1248 112 M270
WINDOW 0 32 32 VTop 2
WINDOW 3 0 32 VBottom 2
SYMATTR InstName D2
SYMATTR Value 1N4148
SYMBOL res 1312 -176 R90
WINDOW 0 0 56 VBottom 2
WINDOW 3 32 56 VTop 2
SYMATTR InstName R8
SYMATTR Value 10K
SYMBOL cap 1312 272 R0
SYMATTR InstName C3
SYMATTR Value 100n
SYMBOL OpAmps\\OP482 912 32 R0
SYMATTR InstName U3
SYMBOL OpAmps\\OP482 1680 16 R0
SYMATTR InstName U4
SYMBOL res -1264 -48 R90
WINDOW 0 0 56 VBottom 2
WINDOW 3 32 56 VTop 2
SYMATTR InstName R9
SYMATTR Value 10K
SYMBOL res -1232 160 R0
SYMATTR InstName R10
SYMATTR Value 8.75K
SYMBOL res -1200 416 R180
WINDOW 0 36 76 Left 2
WINDOW 3 36 40 Left 2
SYMATTR InstName RC1
SYMATTR Value 1k
SYMBOL res -1424 304 R270
WINDOW 0 32 56 VTop 2
WINDOW 3 0 56 VBottom 2
SYMATTR InstName RC2
SYMATTR Value 220k
SYMBOL res -1536 144 R0
SYMATTR InstName R11
SYMATTR Value {10k*a}
SYMBOL res -1536 320 R0
WINDOW 3 36 68 Left 2
SYMATTR Value {10k*(1-a)}
SYMATTR InstName R12
SYMBOL OpAmps\\OP482 -1136 64 R0
SYMATTR InstName U5
SYMBOL res -1024 -48 R90
WINDOW 0 0 56 VBottom 2
WINDOW 3 32 56 VTop 2
SYMATTR InstName R13
SYMATTR Value 70k
SYMBOL voltage -1424 -16 R0
WINDOW 123 24 124 Left 2
WINDOW 39 0 0 Left 0
WINDOW 0 -53 15 Left 2
SYMATTR Value2 AC 1
SYMATTR InstName V6
SYMATTR Value SINE(0 561m 1K)
SYMBOL voltage 288 -160 R0
WINDOW 123 0 0 Left 2
WINDOW 39 0 0 Left 2
SYMATTR InstName V3
SYMATTR Value 0
SYMBOL voltage 432 -160 R0
WINDOW 123 0 0 Left 2
WINDOW 39 0 0 Left 2
SYMATTR InstName V4
SYMATTR Value 0
SYMBOL voltage 560 -160 R0
WINDOW 123 0 0 Left 2
WINDOW 39 0 0 Left 2
SYMATTR InstName V5
SYMATTR Value 0
SYMBOL voltage 704 -160 R0
WINDOW 123 0 0 Left 2
WINDOW 39 0 0 Left 2
SYMATTR InstName V7
SYMATTR Value 15
SYMBOL cap -560 112 M0
SYMATTR InstName C1
SYMATTR Value 100n
SYMBOL res -704 192 R90
WINDOW 0 0 56 VBottom 2
WINDOW 3 32 56 VTop 2
SYMATTR InstName R5
SYMATTR Value {R_bpf}
SYMBOL res -352 192 R180
WINDOW 0 36 76 Left 2
WINDOW 3 36 40 Left 2
SYMATTR InstName R6
SYMATTR Value {R_bpf}
SYMBOL cap -496 224 R270
WINDOW 0 -19 36 VTop 2
WINDOW 3 55 34 VBottom 2
SYMATTR InstName C2
SYMATTR Value 100n
SYMBOL res -272 384 R90
WINDOW 0 0 56 VBottom 2
WINDOW 3 32 56 VTop 2
SYMATTR InstName R7
SYMATTR Value {R_bpf}
SYMBOL res -64 0 R90
WINDOW 0 0 56 VBottom 2
WINDOW 3 32 56 VTop 2
SYMATTR InstName RB1
SYMATTR Value 6.8k
SYMBOL res -368 -80 R0
SYMATTR InstName RA1
SYMATTR Value 6.8k
SYMBOL OpAmps\\OP482 -176 128 R0
SYMATTR InstName U2
SYMBOL nmosb 528 576 R90
SYMATTR InstName M3
SYMATTR Value2 l=180n w=20u ad=3.6p as=3.6p pd=40.4u ps=40.4u
TEXT -1488 -424 Left 2 !.tran 5ms
TEXT -680 -424 Left 2 !.param gbwao=10g
TEXT -680 -392 Left 2 !.param SR=10Meg
TEXT -680 -496 Left 2 !.param R_bpf=2.25k
TEXT -1496 -464 Left 2 !.param a=501.73m
TEXT -376 -496 Left 2 !.FOUR 1khz 10 V(out_TB_gain)
TEXT -376 -464 Left 2 !.OPTIONS plotwinsize=0
TEXT -376 -440 Left 2 !.OPTIONS numdgt=7
TEXT 248 -432 Left 2 !.lib tsmc180nmcmos.lib
TEXT 248 -472 Left 2 !.meas AC Rin FIND Rintrare() AT 1
TEXT 248 -504 Left 2 !.func Rintrare() V(in)/I(V6)
TEXT -1488 -384 Left 2 ;.ac dec 100 10 10khz
TEXT -1488 -352 Left 2 ;.op
