Version 4.1
SHEET 1 880 940
WIRE -208 48 -208 16
WIRE -240 64 -480 64
WIRE -48 80 -176 80
WIRE -16 80 -48 80
WIRE -240 96 -304 96
WIRE -720 112 -752 112
WIRE -656 112 -720 112
WIRE -480 112 -480 64
WIRE -480 112 -576 112
WIRE -304 128 -304 96
WIRE -208 128 -208 112
WIRE -752 144 -752 112
WIRE -752 256 -752 224
WIRE -480 304 -480 112
WIRE -304 304 -480 304
WIRE -144 304 -208 304
WIRE -16 304 -16 80
WIRE -16 304 -64 304
WIRE -256 336 -256 304
WIRE -256 384 -288 384
WIRE -256 400 -256 384
WIRE -480 448 -480 304
WIRE -304 448 -480 448
WIRE -144 448 -208 448
WIRE -16 448 -16 304
WIRE -16 448 -64 448
WIRE -256 480 -256 448
WIRE -1120 512 -1120 432
WIRE -976 512 -976 448
WIRE -832 512 -832 448
WIRE -704 512 -704 448
WIRE -560 512 -560 448
WIRE -256 528 -288 528
WIRE -256 544 -256 528
WIRE -480 592 -480 448
WIRE -304 592 -480 592
WIRE -144 592 -208 592
WIRE -16 592 -16 448
WIRE -16 592 -64 592
WIRE -1120 624 -1120 592
WIRE -976 624 -976 592
WIRE -832 624 -832 592
WIRE -704 624 -704 592
WIRE -560 624 -560 592
WIRE -256 624 -256 592
WIRE -1120 656 -1120 624
WIRE -256 672 -288 672
WIRE -256 688 -256 672
WIRE -480 736 -480 592
WIRE -304 736 -480 736
WIRE -144 736 -208 736
WIRE -16 736 -16 592
WIRE -16 736 -64 736
WIRE -256 768 -256 736
FLAG -1120 656 0
FLAG -1120 432 VDD
FLAG -1120 624 VSS
FLAG -752 256 0
FLAG -976 624 0
FLAG -976 448 S1
FLAG -832 624 0
FLAG -832 448 S2
FLAG -704 624 0
FLAG -704 448 S3
FLAG -560 624 0
FLAG -560 448 S4
FLAG -256 256 S1
FLAG -288 384 S2
FLAG -288 528 S3
FLAG -288 672 S4
FLAG -256 336 VSS
FLAG -256 480 VSS
FLAG -256 624 VSS
FLAG -256 768 VSS
FLAG -48 80 out
FLAG -720 112 in
FLAG -208 128 VSS
FLAG -208 16 VDD
FLAG -304 128 0
SYMBOL voltage -1120 496 R0
WINDOW 123 0 0 Left 2
WINDOW 39 0 0 Left 2
SYMATTR InstName V2
SYMATTR Value 15
SYMBOL res -560 96 R90
WINDOW 0 0 56 VBottom 2
WINDOW 3 32 56 VTop 2
SYMATTR InstName RG
SYMATTR Value 3.3k
SYMBOL res -48 288 R90
WINDOW 0 0 56 VBottom 2
WINDOW 3 32 56 VTop 2
SYMATTR InstName R1
SYMATTR Value 2.91k
SYMBOL res -48 432 R90
WINDOW 0 0 56 VBottom 2
WINDOW 3 32 56 VTop 2
SYMATTR InstName R2
SYMATTR Value 4.15k
SYMBOL res -48 576 R90
WINDOW 0 0 56 VBottom 2
WINDOW 3 32 56 VTop 2
SYMATTR InstName R3
SYMATTR Value 5.81k
SYMBOL res -48 720 R90
WINDOW 0 0 56 VBottom 2
WINDOW 3 32 56 VTop 2
SYMATTR InstName R4
SYMATTR Value 8.29k
SYMBOL nmosb -208 256 R90
SYMATTR InstName M1
SYMATTR Value2 l=180n w=20u ad=3.6p as=3.6p pd=40.4u ps=40.4u
SYMBOL nmosb -208 544 R90
SYMATTR InstName M3
SYMATTR Value2 l=180n w=20u ad=3.6p as=3.6p pd=40.4u ps=40.4u
SYMBOL nmosb -208 688 R90
SYMATTR InstName M4
SYMATTR Value2 l=180n w=20u ad=3.6p as=3.6p pd=40.4u ps=40.4u
SYMBOL voltage -976 496 R0
WINDOW 123 0 0 Left 2
WINDOW 39 0 0 Left 2
SYMATTR InstName V4
SYMATTR Value 15
SYMBOL voltage -832 496 R0
WINDOW 123 0 0 Left 2
WINDOW 39 0 0 Left 2
SYMATTR InstName V5
SYMATTR Value 0
SYMBOL voltage -704 496 R0
WINDOW 123 0 0 Left 2
WINDOW 39 0 0 Left 2
SYMATTR InstName V6
SYMATTR Value 0
SYMBOL voltage -560 496 R0
WINDOW 123 0 0 Left 2
WINDOW 39 0 0 Left 2
SYMATTR InstName V7
SYMATTR Value 0
SYMBOL nmosb -208 400 R90
SYMATTR InstName M2
SYMATTR Value2 l=180n w=20u ad=3.6p as=3.6p pd=40.4u ps=40.4u
SYMBOL voltage -752 128 R0
WINDOW 123 24 124 Left 2
WINDOW 39 0 0 Left 2
WINDOW 3 24 44 Left 2
SYMATTR Value2 AC 1
SYMATTR Value SINE(0 200m 1k)
SYMATTR InstName Vin
SYMBOL OpAmps\\OP482 -208 16 R0
SYMATTR InstName U1
TEXT -440 -256 Left 2 ;.ac dec 1000 10 1Meg
TEXT -440 -216 Left 2 ;.op
TEXT 32 -488 Left 2 !.tran 0 10m 0 100n
TEXT 24 -456 Left 2 !.FOUR 1khz 10 V(OUT)
TEXT 24 -424 Left 2 !.OPTIONS plotwinsize=0
TEXT 32 -392 Left 2 ;To disable compression
TEXT 32 -360 Left 2 !.OPTIONS numdgt=7
TEXT 32 -328 Left 2 ;To switch to double precision math\non dependent variables
TEXT -448 -296 Left 2 !.lib tsmc180nmcmos.lib
TEXT -432 -184 Left 2 !;dc Vin 0 1.8 1m
TEXT -448 -504 Left 2 !.meas AC Rin FIND Rintrare() AT 1
TEXT -448 -472 Left 2 !.func Rintrare() V(in)/I(Vin)
TEXT -448 -432 Left 2 !.FOUR 1khz 10 V(OUT)
TEXT -448 -400 Left 2 !.OPTIONS plotwinsize=0
TEXT -440 -368 Left 2 ;To disable compression
TEXT -440 -336 Left 2 !.OPTIONS numdgt=7
